/*--------------------------------*- C++ -*----------------------------------*\
  =========                 |
  \\      /  F ield         | OpenFOAM: The Open Source CFD Toolbox
   \\    /   O peration     | Website:  https://openfoam.org
    \\  /    A nd           | Version:  9
     \\/     M anipulation  |
\*---------------------------------------------------------------------------*/
FoamFile
{
    format      ascii;
    class       polyBoundaryMesh;
    location    "constant/polyMesh";
    object      boundary;
}
// * * * * * * * * * * * * * * * * * * * * * * * * * * * * * * * * * * * * * //

5
(
    inlet
    {
        type            patch;
        nFaces          400;
        startFace       437800;
    }
    outlet
    {
        type            patch;
        nFaces          800;
        startFace       438200;
    }
    nsw
    {
        type            wall;
        inGroups        List<word> 1(wall);
        nFaces          4800;
        startFace       439000;
    }
    forward
    {
        type            cyclic;
        inGroups        List<word> 1(cyclic);
        nFaces          15200;
        startFace       443800;
        matchTolerance  0.0001;
        neighbourPatch  backward;
        transformType   translational;
        separation      (-1.110223024625157e-16 -0.09999999999999999 -1.734723475976807e-18);
    }
    backward
    {
        type            cyclic;
        inGroups        List<word> 1(cyclic);
        nFaces          15200;
        startFace       459000;
        matchTolerance  0.0001;
        neighbourPatch  forward;
        transformType   translational;
        separation      (1.110223024625157e-16 0.09999999999999999 1.734723475976807e-18);
    }
)

// ************************************************************************* //
