/*--------------------------------*- C++ -*----------------------------------*\
  =========                 |
  \\      /  F ield         | OpenFOAM: The Open Source CFD Toolbox
   \\    /   O peration     | Website:  https://openfoam.org
    \\  /    A nd           | Version:  9
     \\/     M anipulation  |
\*---------------------------------------------------------------------------*/
FoamFile
{
    format      ascii;
    class       dictionary;
    location    "system";
    object      controlDict;
}
// * * * * * * * * * * * * * * * * * * * * * * * * * * * * * * * * * * * * * //

application     pimpleFoam;

startFrom       startTime; //latestTime

startTime       0;

stopAt          endTime;

endTime         30;

deltaT          2.5e-2;

writeControl    runTime;

writeInterval   0.5;

purgeWrite      0;

writeFormat     ascii;

writePrecision  6;

writeCompression off;

timeFormat      general;

timePrecision   6;

maxCo           5;


runTimeModifiable true;

functions
{
    probes
    {
        type		probes;
	libs		("libsampling.so")
	writeControl    runTime;
	writeInterval   0.5;

	fields 
	(
	    U
	);

	probeLocations
	(
	    (0 0.05 0.025)
	    (0.25 0.05 0.025)
	    (0.5 0.05  0.025)
	    (0.75 0.05 0.025)
	    (0.1 0.05 0.025)
	    
	    (0.4 0.05 -0.025)
	    (0.6 0.05 -0.025)
	    (0.8 0.05  -0.025)
	    (1.0 0.05 -0.025)
	    (1.2 0.05 -0.025)
	);

    }


}



// ************************************************************************* //
